data/RTE/case2868rte.m
function mpc = case2868rte
%CASE2868RTE
%   AC Power flow data for French system.
%   Please see CASEFORMAT for details on the case file format.
%
%   This case accurately represents the size and complexity of French
%   very high voltage transmission network.
%   Part of this data was sampled in the offline platform of iTesla.
%   These data can be used to validate mathematical methods and tools.
%   These data should NOT be used for operation
%   nor planning of the French or European grids.
%
%   When publishing results using this data, please cite:
%     C. Josz, S. Fliscounakis, J. Maeght, and P. Panciatici,
%     "AC Power Flow Data in MATPOWER and QCQP Format: iTesla, RTE Snapshots, and PEGASE"
%     http://arxiv.org/abs/1603.01533
%
%   Contacts (primary contact for this file : Jean Maeght):
%   Cédric Josz, Stéphane Fliscounakis, Jean Maeght, Patrick Panciatici
%   firstname.lastname@rte-france.com
%   Réseau de Transport d'Electricité (French Transmission System Operator)
%   Département Expertise Système, Immeuble "Le Colbert"
%   9 rue de la Porte de Buc, 78000 Versailles Cedex, France
%   March 4th, 2016

%% MATPOWER Case Format : Version 2
mpc.version = '2';

%%-----  Power Flow Data  -----%%
%% system MVA base
mpc.baseMVA = 100;

%% bus data
%	bus_i	type	Pd	Qd	Gs	Bs	area	Vm	Va	baseKV	zone	Vmax	Vmin
mpc.bus = [
	1	1	-18.5	0	0	0	1	1.03957074	-12.7856509	63	1	1.06349	0.936508;
	2	1	11.8	0.6	0	0	1	1.06516669	-13.3775389	225	1	1.08889	0.888889;
	3	1	0	0	0	0	1	1.08888546	-4.51671702	380	1	1.10263	1;
	4	1	0	0	0	0	1	1.00600996	-20.9505448	63	1	1.07937	0.920635;
	5	1	0.2	-0.2	0	0	1	0.942209712	-9.07367325	45	1	1	0.888889;
	6	1	5.6	-19	0	0	1	0.94296561	-9.11016114	45	1	1	0.888889;
	7	1	223.6	7.6	0	0	1	1.06730298	-11.3034406	225	1	1.08444	1;
	8	1	68.6	7.6	0	0	1	1.00974411	-19.5488389	63	1	1.06349	0.968254;
	10	1	0	0	0	0	1	1.05674633	-7.6859698	150	1	1.10667	0.9;
	11	1	49.1	0.9	0	0	1	1.04778703	-10.4959639	225	1	1.08889	0.933333;
	2571	1	34	14.4	0	0	1	1.04686282	-11.4360738	225	1	1.08889	0.933333;
	12	1	0	0	0	0	1	1.0570783	-10.6257474	380	1	1.10526	1;
	2572	1	0	0	0	0	1	1.06291996	-10.1490097	380	1	1.10526	1;
	13	1	0	0	0	0	1	1.06118059	-20.8121594	225	1	1.09067	1;
	14	1	0.2	-1.1	0	0	1	0.998402273	-19.5349019	63	1	1.06349	0.936508;
	15	1	10.3	-0.2	0	0	1	1.00960184	-16.8840236	63	1	1.06349	0.936508;
	16	1	189.8	54.4	0	0	1	1.03332753	-15.2015161	225	1	1.08889	0.933333;
	17	1	54.5	13.1	0	0	1	1.07437329	-22.1328317	225	1	1.08889	1;
	18	1	67.6	23.2	0	0	1	1.06826934	-19.369661	225	1	1.08962	1;
	19	2	0	0	0	0	1	1.04150565	-15.107511	63	1	1.08661	0.920635;
	20	1	150.5	40	0	0	1	1.07414904	-22.1336063	225	1	1.08889	1;
	21	1	78.1	6.2	0	0	1	1.07837745	-10.4264501	225	1	1.08889	0.888889;
	22	1	15	-9.4	0	0	1	0.990279412	-25.014912	63	1	1.07249	0.936508;
	23	1	50.9	6	0	0	1	1.00173474	-18.3619703	63	1	1.06349	0.936508;
	24	1	0	0	0	0	1	1.08736673	-7.06750396	225	1	1.08889	1;
	2573	1	0	0	0	0	1	1.08736631	-7.06750114	225	1	1.08889	1;
	25	1	65.1	1.6	0	0	1	1.07853363	-10.4233912	225	1	1.08889	0.888889;
	26	1	1.6	-4.2	0	0	1	1.07598744	-4.14811723	225	1	1.09649	0.986667;
	27	1	42.8	2.3	0	0	1	1.01405223	-18.4056103	63	1	1.06349	0.936508;
	28	1	39.4	15.5	0	0	1	1.05113895	-20.4941876	225	1	1.08889	1;
	2574	1	42.2	12.4	0	0	1	1.05112133	-20.4945453	225	1	1.08889	1;
	29	1	11.4	0.5	0	0	1	1.00515521	-16.7539769	63	1	1.06349	0.936508;
	30	1	72.7	36.5	0	0	1	1.06337239	-18.9692115	225	1	1.08889	1;
	31	1	2.7	-1.4	0	0	1	1.04330906	-14.6242825	63	1	1.07211	0.936508;
	32	1	13.8	-0.4	0	0	1	1.02946566	-19.8883959	63	1	1.06349	0.936508;
	33	1	2	-0.5	0	0	1	0.937076005	-9.75466137	45	1	1	0.888889;
	34	1	0.4	0	0	0	1	0.94194428	-9.10370635	45	1	1	0.888889;
	35	1	30.4	3	0	0	1	1.02086428	-18.2068976	63	1	1.06349	0.968254;
	36	1	1.9	-3.1	0	0	1	0.974471963	-12.2688461	45	1	1	0.888889;
	37	1	18.9	0.9	0	0	1	0.996883091	-16.0858104	63	1	1.06349	0.936508;
	38	2	0	0	0	0	1	1.036	-12.7572317	63	1	1.07937	0.952381;
	39	1	99.3	18.8	0	0	1	1.04880949	-12.8596939	225	1	1.08934	0.986667;
	40	1	38.7	0.9	0	0	1	1.06143677	-12.0055618	225	1	1.08889	0.888889;
	41	1	89.8	13	0	0	1	1.05307427	-28.0690398	225	1	1.08444	1;
	42	1	63.9	9.7	0	0	1	1.02349613	-14.0643108	63	1	1.0637	0.936508;
	43	1	0	0	0	0	1	1.04400425	-11.7772435	225	1	1.08889	0.933333;
	44	1	33.1	-6.5	0	0	1	1.02695311	-18.1849839	63	1	1.06349	0.968254;
	45	1	168.4	34.9	0	0	1	1.05508118	-18.6863905	225	1	1.08889	1;
	46	1	0	0	0	0	1	1.08899996	-4.50903487	380	1	1.10526	1;
	2575	1	0	0	0	0	1	1.08899763	-4.5052882	380	1	1.10526	1;
	47	1	29.5	4.5	0	0	1	1.02924994	-11.0032309	63	1	1.06606	0.936508;
	48	1	1.6	0	0	0	1	1.0380023	-15.0627934	63	1	1.06735	0.936508;
	49	1	14.9	10.4	0	0	1	1.04449377	-10.7690362	63	1	1.06349	0.968254;
	2576	1	9.9	7.2	0	0	1	1.04213976	-11.5674386	63	1	1.06349	0.968254;
	50	1	0	0	0	0	1	1.07524181	-8.92969468	225	1	1.08444	1;
	51	1	114.9	20.2	0	0	1	1.07080154	-14.9322226	225	1	1.08444	1;
	52	1	0	0	0	0	1	1.07543395	-21.9585367	225	1	1.08889	1;
	2942	1	106	29.6	0	0	1	1.03656994	-20.8860482	225	1	1.08889	1;
	53	2	5.7	-6.6	0	0	1	1.03967305	-11.2114832	63	1	1.06349	0.968254;
	54	1	0	0	0	0	1	1.06904972	-11.0690101	150	1	1.08	0.966667;
	55	1	65.6	18	0	80	1	1.02277092	-7.31812106	225	1	1.09459	1;
	56	1	0	0	0	0	1	1.03724147	-4.57515341	380	1	1.10526	1;
	57	1	146.4	39.1	0	0	1	1.02124002	-17.7251591	225	1	1.08889	0.986667;
	59	1	78.7	21.1	0	0	1	1.07954393	-10.2093798	225	1	1.08889	0.968889;
	60	1	125.2	37.6	0	0	1	1.08484514	-8.00388709	380	1	1.10526	1;
	61	1	6	1	0	0	1	1.03128173	-15.4711978	63	1	1.06349	0.936508;
	63	1	36.1	4.7	0	7.7	1	1.00933558	-20.0679804	63	1	1.06349	0.968254;
	2577	1	0	0	0	0	1	1.00934424	-21.3334173	63	1	1.06349	0.968254;
	64	1	53.3	13.4	0	0	1	1.05276128	-12.6446356	225	1	1.08889	0.933333;
	65	1	0	0	0	0	1	1.00931717	-21.3374383	63	1	1.06349	0.968254;
	66	1	43.4	-0.7	0	0	1	0.92175763	-13.4339467	45	1	1	0.888889;
	2578	2	0	0	0	0	1	0.958	-13.3407261	45	1	1	0.888889;
	67	1	41.3	12.8	0	0	1	1.06670888	-10.8411748	225	1	1.08889	0.888889;
	2579	1	38.5	8.5	0	0	1	1.06690256	-10.835916	225	1	1.08889	0.888889;
	68	1	19.6	3.7	0	0	1	1.06949128	-18.381187	20	1	1.2	0.8;
	69	1	320.7	74.9	0	0	1	1.06953469	-18.3731259	225	1	1.08685	1;
	70	1	140.9	-22.3	0	0	1	1.06893349	-20.6667868	225	1	1.08889	1;
	71	2	0	0	0	0	1	1.091	-12.4948451	150	1	1.10885	0.9;
	72	1	0	0	0	0	1	1.0487681	-20.6337343	225	1	1.08889	1;
	2580	1	0	0	0	0	1	1.04876788	-20.6337331	225	1	1.08889	1;
	74	1	0	0	0	0	1	1.04876663	-20.6337262	225	1	1.08889	1;
	75	1	15.6	3	0	0	1	1.02954269	-12.5232602	63	1	1.06349	0.936508;
	76	2	0	0	0	0	1	0.936	-9.18763306	45	1	1	0.888889;
	77	1	6.4	0.3	0	0	1	1.03543542	-16.1086493	63	1	1.08481	0.920635;
	78	1	4.8	2.4	0	0	1	1.05502862	-19.2480453	225	1	1.08889	1;
	79	1	17.4	1.7	0	15	1	1.00754108	-27.4814562	63	1	1.07937	0.920635;
	80	1	10	-0.6	0	0	1	0.995772648	-19.1831462	63	1	1.08744	0.920635;
	81	1	0	0	0	0	1	1.0440276	-17.359702	225	1	1.08889	1;
	82	1	63.1	25.3	0	0	1	1.05795939	-12.3730191	225	1	1.08889	0.888889;
	83	1	44.1	1.9	0	0	1	0.997900327	-25.7645007	63	1	1.06349	0.967399;
	84	1	162.3	51.1	0	0	1	1.07048844	-7.92331607	225	1	1.08889	0.968889;
	85	1	0	0	0	0	1	1.08605073	-4.78732009	380	1	1.10526	1;
	86	1	58.3	14.1	0	0	1	1.00724259	-23.3698198	63	1	1.06349	0.968254;
	87	1	32.5	4.6	0	0	1	0.993796119	-13.6335423	63	1	1.06349	0.968254;
	88	1	1.5	0.7	0	0	1	1.02834157	-16.4283637	63	1	1.06349	0.968254;
	89	1	55.7	8.3	0	0	1	1.02175873	-14.0720657	63	1	1.06349	0.968254;
	2581	1	30.1	12.2	0	0	1	1.02212915	-13.8487246	63	1	1.06349	0.968254;
	90	1	0	0	0	0	1	1.06765662	-13.7777708	225	1	1.08444	1;
	2582	1	0	0	0	0	1	1.06760338	-13.807522	225	1	1.08444	1;
	91	1	190.1	8	0	0	1	1.0609556	-20.2843633	225	1	1.08889	1;
	92	1	36.8	-8.5	0	0	1	1.06964778	-10.0034274	225	1	1.09041	0.933333;
	93	2	0	0	0	0	1	1.09047512	-12.5519577	150	1	1.10907	0.9;
	94	1	35.7	55.7	0	0	1	1.07939534	-12.9106011	225	1	1.08444	1;
	2583	1	34	3.2	0	0	1	1.08021703	-12.9173291	225	1	1.08444	1;
	95	1	0	0	0	0	1	1.07839122	-13.2249988	225	1	1.08889	0.977778;
	96	1	15.9	4.1	0	0	1	1.0615075	-11.1187178	225	1	1.08889	0.888889;
	97	1	40.4	6.5	0	0	1	1.00685807	-21.6222117	63	1	1.06349	0.968254;
	98	1	-3.5	-1.6	0	0	1	1.05224889	-10.2497723	225	1	1.08889	0.933333;
	99	1	18.2	5.5	0	0	1	1.06121608	-20.8488846	225	1	1.08889	1;
	2584	1	33.2	14.1	0	0	1	1.06715039	-19.6241436	225	1	1.08889	1;
	100	1	-17.2	-4.3	0	0	1	1.04357054	-17.5525378	225	1	1.08889	1;
	101	1	24.4	1.9	0	0	1	1.06339988	-13.9006632	225	1	1.08889	0.986667;
	102	1	0	0	0	80	1	1.07290192	-10.5578661	225	1	1.08889	0.888889;
	2585	1	0	0	0	0	1	1.06406579	-11.4221677	225	1	1.08889	0.888889;
	103	1	0	0	0	0	1	1.07695363	-7.11066132	380	1	1.10526	1;
	104	1	74.9	14.3	0	0	1	1.0501149	-20.7221334	225	1	1.08889	1;
	2586	1	29	6.8	0	0	1	1.06454398	-19.7362121	225	1	1.08889	1;
	105	1	11.4	9.2	0	0	1	1.00103775	-16.9248584	63	1	1.07937	0.920635;
	106	1	0	0	0	0	1	1.06901319	-10.0460515	225	1	1.08889	0.977778;
	2587	1	0	0	0	0	1	1.06901999	-10.0459566	225	1	1.08889	0.977778;
	107	1	5.7	10.3	0	0	1	1.03757067	-14.1962729	63	1	1.06349	0.968254;
	108	1	54.1	1.9	0	0	1	1.06695524	-10.7581791	225	1	1.08444	1;
	109	1	0	0	0	0	1	1.07658268	-14.0193555	225	1	1.08444	1;
	110	1	0	0	0	0	1	1.09331748	-8.28931693	380	1	1.10263	1;
	111	1	103.3	18	0	0	1	1.07626914	-14.0756991	225	1	1.08444	1;
	112	1	-1.5	2.2	0	0	1	1.06928796	-19.2036147	225	1	1.09035	1;
	2588	1	16.5	-0.1	0	0	1	1.06925164	-19.2134954	225	1	1.09035	1;
	113	1	47	9.8	0	0	1	1.0819927	-4.56327751	225	1	1.08889	0.888889;
	114	1	43.8	0.6	0	0	1	1.02384974	-16.6455425	63	1	1.06349	0.936508;
	115	1	16.4	1.2	0	0	1	1.0690746	-11.5058425	225	1	1.08889	0.888889;
	116	1	56.9	18.9	0	0	1	1.07288681	-6.70235687	225	1	1.08889	0.888889;
	117	1	3.2	0.4	0	0	1	1.01221849	-13.8566616	63	1	1.06349	0.968254;
	118	1	44	10	0	0	1	0.984057863	-29.8904038	63	1	1.07937	0.920635;
	119	1	28.5	-5.1	0	0	1	1.02675218	-21.3609643	63	1	1.06349	0.968254;
	120	2	0	0	0	0	1	1.049	-15.058726	63	1	1.06863	0.936508;
	121	1	8.5	3.1	0	0	1	1.02653722	-25.5795491	63	1	1.06349	0.968254;
	2589	1	15	6.8	0	0	1	1.02659968	-25.6110124	63	1	1.06349	0.968254;
	122	1	142.7	-26.6	0	0	1	1.05285733	-12.506156	225	1	1.08889	1;
	123	1	32.4	7.9	0	0	1	1.01316225	-23.5029903	63	1	1.07937	0.920635;
	124	2	4.7	-2	0	0	1	1.03095395	-17.0573027	63	1	1.08203	0.920635;
	125	1	0	0	0	0	1	1.0336739	-21.4763796	63	1	1.07937	0.920635;
	126	1	0	0	0	0	1	1.0233504	-12.9463589	225	1	1.08889	1;
	127	1	0	0	0	0	1	1.061739	-12.9611097	380	1	1.10526	1;
	128	1	26.4	3.8	0	0	1	1.03631833	-13.1986143	63	1	1.06349	0.936508;
	129	2	16.3	7.5	0	0	1	1.02632529	-15.7888272	63	1	1.06349	0.936508;
	130	1	10.9	16.3	0	0	1	1.04663197	-17.5668721	63	1	1.07937	0.920635;
	2955	1	0	0	0	0	1	1.0227956	-19.8618164	63	1	1.07937	0.920635;
	131	1	0	0	0	0	1	1.0527202	-15.6919249	225	1	1.08889	1;
	132	1	139.1	40	0	0	1	1.04578364	-17.0663527	225	1	1.08889	1;
	133	2	9.2	3.6	0	0	1	1.008	-29.2069551	63	1	1.06538	0.968254;
	134	2	0	0	0	0	1	1.00881558	-21.5295796	150	1	1.08	0.966667;
	135	2	-14.9	-4.8	0	0	1	1.02936073	-19.2981863	63	1	1.07937	0.920635;
	136	1	31.7	10.2	0	0	1	1.04827941	-12.3656357	225	1	1.08889	0.986667;
	137	1	9.7	-2.1	0	0	1	1.0198151	-13.6526439	63	1	1.06349	0.968254;
	138	1	12.8	5.8	0	0	1	1.06116318	-8.64980177	225	1	1.08444	1;
	140	1	0	0	0	0	1	1.09861059	-3.91680983	380	1	1.10526	1;
	2590	1	0	0	0	0	1	1.09940833	-3.83524305	380	1	1.10526	1;
	141	1	20.8	1.1	0	0	1	1.05545215	-11.2719939	225	1	1.08889	1;
	142	1	10.3	9.6	0	0	1	1.06626653	-16.3570817	225	1	1.08889	1;
	143	1	28.7	2.3	0	0	1	1.01995095	-21.3560134	63	1	1.06349	0.968254;
	144	1	82.9	11.1	0	0	1	1.075666	-15.3110955	150	1	1.1	0.9;
	145	1	72.9	0.2	0	0	1	1.04693974	-13.700896	225	1	1.08925	1;
	146	2	-3.7	-0.5	0	0	1	1.051	-20.5356037	225	1	1.08889	1;
	147	1	0	0	0	0	1	1.04733528	-10.4089217	225	1	1.08889	0.933333;
	148	1	0	0	0	0	1	1.06293868	-10.0930426	380	1	1.10526	1;
	2591	1	0	0	0	0	1	1.05707552	-10.5433047	380	1	1.10526	1;
	149	1	0	0	0	0	1	1.07473471	-22.1074766	225	1	1.08889	1;
	2592	1	66.1	19.5	0	0	1	1.0347394	-21.1306766	225	1	1.08889	1;
	150	1	0	0	0	0	1	1.02224417	-11.0332254	225	1	1.08889	0.986667;
	151	1	24	9.7	0	0	1	1.07455824	-22.1203835	225	1	1.08889	1;
	153	1	137.1	23.1	0	0	1	1.02980033	-10.4231277	225	1	1.08889	0.933333;
	154	1	0	0	0	0	1	1.06626964	-7.13788385	380	1	1.10526	1;
	155	1	55.3	18.4	0	0	1	1.05850973	-10.6112512	225	1	1.08889	1;
	156	1	30.9	4.2	0	0	1	1.04464819	-16.3219945	63	1	1.06503	0.936508;
	157	1	2.4	0.4	0	0	1	1.03564222	-14.6858502	63	1	1.06349	0.968254;
	158	1	27.5	2.2	0	0	1	1.01640934	-21.2022009	63	1	1.07937	0.920635;
	159	1	24.3	1.9	0	0	1	1.0065889	-23.9976681	63	1	1.06349	0.968254;
	160	1	5.6	3	0	0	1	1.01781991	-17.888386	63	1	1.06349	0.936508;
	161	2	0	0	0	0	1	0.997372449	-21.1158526	63	1	1.15	0.8;
	162	1	0.5	-40.5	0	0	1	1.0724193	-19.7796414	225	1	1.09053	1;
	163	1	0	0	0	0	1	1.01942021	-31.2100473	63	1	1.06349	0.968254;
	164	1	109.3	-1.7	0	0	1	1.0439638	-11.5860344	225	1	1.09791	1;
	165	1	187.3	17.6	0	0	1	1.05303584	-8.53297324	225	1	1.08889	0.986667;
	166	1	51.6	6.2	0	0	1	1.03235274	-16.7482068	63	1	1.06349	0.968254;
	167	1	119.3	36.7	0	0	1	1.06118842	-20.807027	225	1	1.09067	1;
	168	1	14.1	-5.7	0	0	1	1.0076754	-16.301367	63	1	1.06349	0.936508;
	169	1	24.1	-4.6	0	0	1	1.0124195	-16.0049382	63	1	1.06349	0.968254;
	170	1	1.8	0.3	0	0	1	1.03162859	-15.9797699	63	1	1.06822	0.936508;
	171	1	181.5	51.4	0	0	1	1.05497058	-12.8212795	225	1	1.08889	0.924444;
	172	2	-0	1.2	0	0	1	0.995015	-12.2363058	63	1	1.06349	0.968254;
	173	1	82.5	15.9	0	0	1	1.08898655	-2.73327438	225	1	1.09616	0.986667;
	174	1	0	0	0	0	1	1.09568901	-1.70247243	380	1	1.10526	1;
	2998	1	0	0	0	0	1	1.09658913	-1.16129964	380	1	1.10526	1;
	175	1	120.7	-49.6	0	0	1	1.0660945	-23.1480029	225	1	1.08444	1;
	177	1	0	0	0	0	1	0.970410004	-27.7752476	63	1	1.06349	0.960855;
	178	1	0	0	0	0	1	1.05671877	-26.7198436	225	1	1.08444	1;
	179	1	0	0	0	0	1	1.052746	-23.9394857	380	1	1.10263	1;
	180	1	5	0.6	0	0	1	1.0297866	-10.4512216	225	1	1.08889	0.933333;
	181	1	-3	-14.3	0	0	1	0.979322683	-9.47678764	45	1	1.01652	0.888889;
	182	1	0	0	0	0	1	1.03156899	-15.4353561	63	1	1.06349	0.936508;
...
];

%% generator data
%	bus	Pg	Qg	Qmax	Qmin	Vg	mBase	status	Pmax	Pmin	Pc1	Pc2	Qc1min	Qc1max	Qc2min	Qc2max	ramp_agc	ramp_10	ramp_30	ramp_q	apf
mpc.gen = [
	1279	0	0	15	-15	1.029	100	0	35	7	0	0	0	0	0	0	0	0	0	0	0;
	1210	24.74	0.66	20	-15	1.023	100	1	36.1	7.22	0	0	0	0	0	0	0	0	0	0	0;
	751	44	0.33	21	-9	1.035	100	1	46	9.2	0	0	0	0	0	0	0	0	0	0	0;
	2777	1.93	0	0.1	-0.1	1.102	100	1	4	0	0	0	0	0	0	0	0	0	0	0	0;
	2777	6	0.9	1	0.9	1.102	100	1	7	1.4	0	0	0	0	0	0	0	0	0	0	0;
	978	6.41	0.01	4	-7	1.113	100	1	12	2.4	0	0	0	0	0	0	0	0	0	0	0;
	158	0.45	0	0	0	1.024	100	1	2.7	0	0	0	0	0	0	0	0	0	0	0	0;
	1217	12	-0.03	5	-5	1.017	100	1	13	2.6	0	0	0	0	0	0	0	0	0	0	0;
	367	48	1.18	27	-9	0.995	100	1	50	10	0	0	0	0	0	0	0	0	0	0	0;
	1127	7.1	0	0	0	1.001	100	1	16	3.2	0	0	0	0	0	0	0	0	0	0	0;
	460	0	0	40	-40	1.065	100	0	62	12.4	0	0	0	0	0	0	0	0	0	0	0;
	968	10.14	0.05	10	-10	1.07	100	1	18	3.6	0	0	0	0	0	0	0	0	0	0	0;
	1827	21	0.05	7	-12	1.065	100	1	22	4.4	0	0	0	0	0	0	0	0	0	0	0;
	1466	38	0.02	5	-15	1.05	100	1	40	1	0	0	0	0	0	0	0	0	0	0	0;
	2863	26.2	0.02	6	-6	0.987	100	1	40	1	0	0	0	0	0	0	0	0	0	0	0;
	1466	38	0.02	5	-15	1.05	100	1	40	1	0	0	0	0	0	0	0	0	0	0	0;
	2863	26.2	0.02	6	-6	0.987	100	1	40	1	0	0	0	0	0	0	0	0	0	0	0;
	1072	0	0	1	0.9	1.091	100	0	12	2.4	0	0	0	0	0	0	0	0	0	0	0;
	1072	0	0	1	0.9	1.091	100	0	14	2.8	0	0	0	0	0	0	0	0	0	0	0;
	1072	0	0	1	0.9	1.091	100	0	12	2.4	0	0	0	0	0	0	0	0	0	0	0;
	642	-3.26	1.14	3	-3	1.029	100	1	10.33	2.07	0	0	0	0	0	0	0	0	0	0	0;
	642	-4.23	-0.44	3	-3	1.029	100	1	10.33	2.07	0	0	0	0	0	0	0	0	0	0	0;
	542	5	0.49	22	-10	1.019	100	1	50	5	0	0	0	0	0	0	0	0	0	0	0;
	773	-5.36	0	0	0	1.033	100	1	12	2.4	0	0	0	0	0	0	0	0	0	0	0;
	399	3.01	0	0	0	0.985	100	1	13.8	2.76	0	0	0	0	0	0	0	0	0	0	0;
	399	1.2	0	0	0	0.985	100	1	1.2	0	0	0	0	0	0	0	0	0	0	0	0;
	21	16.33	0	0	0	1.079	100	1	24	4.8	0	0	0	0	0	0	0	0	0	0	0;
	21	23.1	0	0	0	1.079	100	1	27.6	5.52	0	0	0	0	0	0	0	0	0	0	0;
	899	-0.61	0	0	0	1.044	100	1	18	3.6	0	0	0	0	0	0	0	0	0	0	0;
	899	-1.56	0	0	0	1.044	100	1	21	4.2	0	0	0	0	0	0	0	0	0	0	0;
	2618	1.2	0	0	0	1.032	100	1	6	1.2	0	0	0	0	0	0	0	0	0	0	0;
	2618	31.36	0.08	10	-6	1.032	100	1	37.5	7.5	0	0	0	0	0	0	0	0	0	0	0;
	285	1.2	0	0	0	1.032	100	1	6	1.2	0	0	0	0	0	0	0	0	0	0	0;
	285	36	0.07	10	-6	1.032	100	1	37.5	7.5	0	0	0	0	0	0	0	0	0	0	0;
	135	8.82	0.01	5	-6	1.053	100	1	13	2.6	0	0	0	0	0	0	0	0	0	0	0;
	53	9.25	-0	0.8	-0.8	1.038	100	1	18	3.6	0	0	0	0	0	0	0	0	0	0	0;
	53	17	-0	0.8	-0.8	1.038	100	1	18	3.6	0	0	0	0	0	0	0	0	0	0	0;
	596	1.99	0	0	0	1.069	100	1	4	0	0	0	0	0	0	0	0	0	0	0	0;
	958	-0.45	0	0	0	0.999	100	1	4.6	0	0	0	0	0	0	0	0	0	0	0	0;
	1679	17.64	0.03	6	-4	1.048	100	1	21	4.2	0	0	0	0	0	0	0	0	0	0	0;
	1679	9.54	0.04	6.7	-4.5	1.048	100	1	21	4.2	0	0	0	0	0	0	0	0	0	0	0;
	1157	-1.68	0	0	0	1.012	100	1	7.2	1.44	0	0	0	0	0	0	0	0	0	0	0;
	513	0	0	5	1	1.008	100	0	11	2.2	0	0	0	0	0	0	0	0	0	0	0;
	513	0	0	5	1	1.008	100	0	11	2.2	0	0	0	0	0	0	0	0	0	0	0;
	371	6.54	0.01	5	-5	1.04	100	1	8	1.6	0	0	0	0	0	0	0	0	0	0	0;
	371	3.34	0.01	5	-5	1.04	100	1	8	1.6	0	0	0	0	0	0	0	0	0	0	0;
	976	29.37	0.1	12	-15	1.008	100	1	35	7	0	0	0	0	0	0	0	0	0	0	0;
	976	26.73	0.1	12	-15	1.008	100	1	35	7	0	0	0	0	0	0	0	0	0	0	0;
	2754	1.42	0	0	0	1.045	100	1	11.5	2.3	0	0	0	0	0	0	0	0	0	0	0;
	749	0	0	5	-5	0.952	100	0	8.5	1.7	0	0	0	0	0	0	0	0	0	0	0;
	1188	19	1.9	2	1.9	1.09	100	1	20	4	0	0	0	0	0	0	0	0	0	0	0;
	1254	8.72	-6.06	7	-7	1.057	100	1	24	4.8	0	0	0	0	0	0	0	0	0	0	0;
	252	2.2	0.05	8	-5	0.952	100	1	11	2.2	0	0	0	0	0	0	0	0	0	0	0;
	252	4.45	0.03	6	-5	0.952	100	1	9	1.8	0	0	0	0	0	0	0	0	0	0	0;
	252	4.74	0.05	8	-5	0.952	100	1	11	2.2	0	0	0	0	0	0	0	0	0	0	0;
	252	4.47	0.03	6	-5	0.952	100	1	9	1.8	0	0	0	0	0	0	0	0	0	0	0;
	504	12	0.03	6.5	-6.5	0.958	100	1	12.4	2.48	0	0	0	0	0	0	0	0	0	0	0;
	115	17.55	0	0	0	1.07	100	1	25.3	5.06	0	0	0	0	0	0	0	0	0	0	0;
	967	0.82	0	0	0	1.071	100	1	2.3	0	0	0	0	0	0	0	0	0	0	0	0;
	1811	4.08	-0.01	5.5	-5.5	1.047	100	1	9	1.8	0	0	0	0	0	0	0	0	0	0	0;
	2634	10.3	0.02	7	-7	1.061	100	1	14	2.8	0	0	0	0	0	0	0	0	0	0	0;
	326	12.39	0.02	7	-7	1.059	100	1	14	2.8	0	0	0	0	0	0	0	0	0	0	0;
	1829	10.95	-0	7.7	-7.7	1.033	100	1	12.8	2.56	0	0	0	0	0	0	0	0	0	0	0;
	1314	27.65	0.75	19	-19	1.098	100	1	39	7.8	0	0	0	0	0	0	0	0	0	0	0;
	71	15.39	0.19	10	-4	1.091	100	1	30	6	0	0	0	0	0	0	0	0	0	0	0;
	93	0	0	2	1.9	1.09	100	0	6	1.2	0	0	0	0	0	0	0	0	0	0	0;
	129	8.67	0.01	4	-4	1.037	100	1	11	2.2	0	0	0	0	0	0	0	0	0	0	0;
	1594	2.4	-0.03	5	-5	1.015	100	1	12	2.4	0	0	0	0	0	0	0	0	0	0	0;
	1594	8.04	-0.03	5	-5	1.015	100	1	12	2.4	0	0	0	0	0	0	0	0	0	0	0;
	1354	3.34	-0	2	-2	1.009	100	1	5	0	0	0	0	0	0	0	0	0	0	0	0;
	1133	9.1	0	0	0	1.006	100	1	17.25	3.45	0	0	0	0	0	0	0	0	0	0	0;
	1405	21.58	0.2	12	-8	1.033	100	1	37.8	7.56	0	0	0	0	0	0	0	0	0	0	0;
	2850	21.68	0.2	12	-8	1.033	100	1	37.8	7.56	0	0	0	0	0	0	0	0	0	0	0;
	2849	21.44	0.2	12	-8	1.033	100	1	37.8	7.56	0	0	0	0	0	0	0	0	0	0	0;
	1122	-0.64	0	0	0	1.037	100	1	6.9	1.38	0	0	0	0	0	0	0	0	0	0	0;
	1708	44.5	0.77	27	-9	1.03	100	1	45	44	0	0	0	0	0	0	0	0	0	0	0;
	1708	44.5	0.77	27	-9	1.03	100	1	45	44	0	0	0	0	0	0	0	0	0	0	0;
	1658	-8.3	0	0	0	1.035	100	1	29.9	5.98	0	0	0	0	0	0	0	0	0	0	0;
	2884	4.17	0	0	0	1.025	100	1	13.7	2.74	0	0	0	0	0	0	0	0	0	0	0;
	1154	1.99	0	0	0	1.061	100	1	20.8	4.16	0	0	0	0	0	0	0	0	0	0	0;
	231	1.66	0.09	8.3	-8.3	1.04	100	1	8.3	1.66	0	0	0	0	0	0	0	0	0	0	0;
	2887	17.93	0.07	7	-3	1.024	100	1	23.7	4.74	0	0	0	0	0	0	0	0	0	0	0;
	2888	18.06	0.07	7	-3	1.024	100	1	23.7	4.74	0	0	0	0	0	0	0	0	0	0	0;
	1666	18.07	0.07	7	-3	1.024	100	1	23.7	4.74	0	0	0	0	0	0	0	0	0	0	0;
	499	16	0.9	1	0.9	1.084	100	1	17	3.4	0	0	0	0	0	0	0	0	0	0	0;
	499	1.4	0.9	1	0.9	1.084	100	1	7	1.4	0	0	0	0	0	0	0	0	0	0	0;
	499	7.29	0.9	1	0.9	1.084	100	1	17	3.4	0	0	0	0	0	0	0	0	0	0	0;
	2709	12.44	0.02	4	-4	1.021	100	1	24	4.8	0	0	0	0	0	0	0	0	0	0	0;
	709	14.04	0.02	4	-4	1.021	100	1	24	4.8	0	0	0	0	0	0	0	0	0	0	0;
	2710	9.39	0.02	4	-4	1.021	100	1	24	4.8	0	0	0	0	0	0	0	0	0	0	0;
	2708	11.85	0.02	4	-4	1.021	100	1	24	4.8	0	0	0	0	0	0	0	0	0	0	0;
	1280	2.05	0	0	0	1.044	100	1	18	3.6	0	0	0	0	0	0	0	0	0	0	0;
	1493	0	0	11	-11	0.951	100	0	18	3.6	0	0	0	0	0	0	0	0	0	0	0;
	745	17.76	0.03	8	-18	0.984	100	1	29	5.8	0	0	0	0	0	0	0	0	0	0	0;
	2727	19.34	0.01	5	-18	0.991	100	1	29	5.8	0	0	0	0	0	0	0	0	0	0	0;
	1445	21.41	0	0	0	1.064	100	1	55	11	0	0	0	0	0	0	0	0	0	0	0;
	316	0	0.9	1	0.9	1.109	100	1	5	0	0	0	0	0	0	0	0	0	0	0	0;
	316	6.45	-0.15	3.14	-3.43	1.109	100	1	9.8	1.96	0	0	0	0	0	0	0	0	0	0	0;
	564	-3.76	0	0	0	1.035	100	1	10	2	0	0	0	0	0	0	0	0	0	0	0;
	1047	-1.41	0	0	0	1.022	100	1	12	2.4	0	0	0	0	0	0	0	0	0	0	0;
	1047	-0.06	0	0	0	1.022	100	1	2	0	0	0	0	0	0	0	0	0	0	0	0;
	1335	0.49	-0	3	-1	1.046	100	1	2	0	0	0	0	0	0	0	0	0	0	0	0;
	2624	19.2	0.18	15	-17	1.051	100	1	31	6.2	0	0	0	0	0	0	0	0	0	0	0;
	298	27.16	0.18	15	-17	1.05	100	1	31	6.2	0	0	0	0	0	0	0	0	0	0	0;
	298	19.69	0.18	15	-17	1.05	100	1	31	6.2	0	0	0	0	0	0	0	0	0	0	0;
	2625	19.04	0.18	15	-17	1.05	100	1	31	6.2	0	0	0	0	0	0	0	0	0	0	0;
	2625	27.7	0.18	15	-17	1.05	100	1	31	6.2	0	0	0	0	0	0	0	0	0	0	0;
	2624	24.52	0.18	15	-17	1.051	100	1	31	6.2	0	0	0	0	0	0	0	0	0	0	0;
	2721	14.43	-0	0	-0.01	1.03	100	1	24	4.8	0	0	0	0	0	0	0	0	0	0	0;
	2718	4.96	0.09	8	-7	1.03	100	1	24	4.8	0	0	0	0	0	0	0	0	0	0	0;
	741	14.36	0.09	8	-7	1.03	100	1	24	4.8	0	0	0	0	0	0	0	0	0	0	0;
	2719	12.97	0.09	8	-7	1.03	100	1	24	4.8	0	0	0	0	0	0	0	0	0	0	0;
	2720	14.29	0.09	8	-7	1.03	100	1	24	4.8	0	0	0	0	0	0	0	0	0	0	0;
	283	16.23	0.32	8	-8	1.074	100	1	23.5	4.7	0	0	0	0	0	0	0	0	0	0	0;
	1506	26	0.04	6	-11	1.037	100	1	27	5.4	0	0	0	0	0	0	0	0	0	0	0;
	1506	8.36	0.04	6	-11	1.037	100	1	27	5.4	0	0	0	0	0	0	0	0	0	0	0;
	1847	31	0.15	12	-8	1.033	100	1	32	6.4	0	0	0	0	0	0	0	0	0	0	0;
	1398	4.24	0	0	0	1.018	100	1	20.02	4	0	0	0	0	0	0	0	0	0	0	0;
	1398	7.16	0	0	0	1.018	100	1	20.35	4.07	0	0	0	0	0	0	0	0	0	0	0;
	225	9	1.24	45	-45	1.046	100	1	45	9	0	0	0	0	0	0	0	0	0	0	0;
	225	37.28	1.24	45	-45	1.046	100	1	45	9	0	0	0	0	0	0	0	0	0	0	0;
	1607	-0.18	0	0	0	1.032	100	1	1.74	0	0	0	0	0	0	0	0	0	0	0	0;
	314	17.33	0.08	10	-10	0.962	100	1	20	4	0	0	0	0	0	0	0	0	0	0	0;
	2680	200.07	17.61	100	-60	1.094	100	1	239	44	0	0	0	0	0	0	0	0	0	0	0;
	582	82	8.36	70	-45	0.957	100	1	169	82	0	0	0	0	0	0	0	0	0	0	0;
	2978	82	8.33	70	-45	0.957	100	1	169	82	0	0	0	0	0	0	0	0	0	0	0;
	2977	202.54	17.71	100	-60	1.094	100	1	239	44	0	0	0	0	0	0	0	0	0	0	0;
	240	232	-5.18	80	-75	1.073	100	1	239	47.8	0	0	0	0	0	0	0	0	0	0	0;
	1655	3.07	0	0	0	0.973	100	1	12	2.4	0	0	0	0	0	0	0	0	0	0	0;
	1655	0.49	0	0	0	0.973	100	1	4	0	0	0	0	0	0	0	0	0	0	0	0;
	1150	-1.68	0	0	0	1.058	100	1	54	10.8	0	0	0	0	0	0	0	0	0	0	0;
	1447	6	-0.02	2	-3	1.063	100	1	7	1.4	0	0	0	0	0	0	0	0	0	0	0;
	906	0	0	8	-8	1.065	100	0	21	4.2	0	0	0	0	0	0	0	0	0	0	0;
	1474	0	-0	1	-1	1.023	100	0	2	0	0	0	0	0	0	0	0	0	0	0	0;
	1474	4.62	-0	3	-3	1.023	100	1	8	1.6	0	0	0	0	0	0	0	0	0	0	0;
	1474	1.6	-0	3	-3	1.023	100	1	8	1.6	0	0	0	0	0	0	0	0	0	0	0;
	963	8	0	1	-2	1	100	1	8.9	1.78	0	0	0	0	0	0	0	0	0	0	0;
	962	18.18	0	0	0	1.038	100	1	22	4.4	0	0	0	0	0	0	0	0	0	0	0;
	923	11	0	5	-5	1.04	100	1	12	2.4	0	0	0	0	0	0	0	0	0	0	0;
	1153	15	-0.38	17.3	-17.3	1.045	100	1	16	3.2	0	0	0	0	0	0	0	0	0	0	0;
	1153	16	-0.13	10	-10	1.045	100	1	16.8	3.36	0	0	0	0	0	0	0	0	0	0	0;
	274	5.26	0.01	3.7	-3.7	1.033	100	1	6.7	1.34	0	0	0	0	0	0	0	0	0	0	0;
	274	3.15	0.01	3	-3	1.033	100	1	5.6	1.12	0	0	0	0	0	0	0	0	0	0	0;
	1776	9	0.02	5	-5	1.033	100	1	10	2	0	0	0	0	0	0	0	0	0	0	0;
	1776	9	0.02	5	-5	1.033	100	1	10	2	0	0	0	0	0	0	0	0	0	0	0;
	2914	9	0.02	5	-5	1.033	100	1	10	2	0	0	0	0	0	0	0	0	0	0	0;
	2914	9	0.02	5	-5	1.033	100	1	10	2	0	0	0	0	0	0	0	0	0	0	0;
	184	0	0	8	-17	1.067	100	0	23.4	4.68	0	0	0	0	0	0	0	0	0	0	0;
	1657	5.2	-0.59	16	-17	1.014	100	1	26	5.2	0	0	0	0	0	0	0	0	0	0	0;
	1657	12.72	-0.59	16	-17	1.014	100	1	26	5.2	0	0	0	0	0	0	0	0	0	0	0;
	1761	0.97	0	0.1	-0.1	1.091	100	1	2.5	0	0	0	0	0	0	0	0	0	0	0	0;
	1761	0	0	1	0.9	1.091	100	0	11	2.2	0	0	0	0	0	0	0	0	0	0	0;
	1868	6	-0.28	18	-18	1.04	100	1	30	6	0	0	0	0	0	0	0	0	0	0	0;
	1868	29	-0.28	18	-18	1.04	100	1	30	6	0	0	0	0	0	0	0	0	0	0	0;
	731	0	0	26	-26	1.038	100	0	43	8.6	0	0	0	0	0	0	0	0	0	0	0;
	2715	0	0	20	-20	1.036	100	0	38	7.6	0	0	0	0	0	0	0	0	0	0	0;
	1263	17.8	0.15	14	-14	1.018	100	1	23.1	4.62	0	0	0	0	0	0	0	0	0	0	0;
	1263	17.8	0.15	14	-14	1.018	100	1	23.1	4.62	0	0	0	0	0	0	0	0	0	0	0;
	161	3.6	-0.16	5	-5	1.065	100	1	18	3.6	0	0	0	0	0	0	0	0	0	0	0;
	604	9	0.01	6	-6	1.027	100	1	10.2	2.04	0	0	0	0	0	0	0	0	0	0	0;
	918	22.38	0	0	0	1.051	100	1	26	5.2	0	0	0	0	0	0	0	0	0	0	0;
	1760	10.18	-0	1	-1	1.039	100	1	11.5	2.3	0	0	0	0	0	0	0	0	0	0	0;
	1760	2.3	-0	1	-1	1.039	100	1	11.5	2.3	0	0	0	0	0	0	0	0	0	0	0;
	1414	10.58	0.06	7.8	-7.8	1.036	100	1	13	2.6	0	0	0	0	0	0	0	0	0	0	0;
	1414	9.5	0.05	7.2	-7.2	1.036	100	1	12	2.4	0	0	0	0	0	0	0	0	0	0	0;
	662	26.44	0.67	20	-18	1.018	100	1	40	8	0	0	0	0	0	0	0	0	0	0	0;
	2697	27.23	0.69	20	-18	1.018	100	1	40	8	0	0	0	0	0	0	0	0	0	0	0;
	2696	27.22	0.69	20	-18	1.018	100	1	40	8	0	0	0	0	0	0	0	0	0	0	0;
	1346	2.4	0.05	7	-7	1.028	100	1	12	2.4	0	0	0	0	0	0	0	0	0	0	0;
	1346	2.4	0.05	7	-7	1.028	100	1	12	2.4	0	0	0	0	0	0	0	0	0	0	0;
	2622	4.05	0.38	26	-26	1.024	100	1	8	1.6	0	0	0	0	0	0	0	0	0	0	0;
	2622	7.45	0.38	26	-26	1.024	100	1	15	3	0	0	0	0	0	0	0	0	0	0	0;
	291	10.27	0.37	26	-26	1.03	100	1	19	3.8	0	0	0	0	0	0	0	0	0	0	0;
	1490	10	0.01	6.5	-6.5	1.03	100	1	10.6	2.12	0	0	0	0	0	0	0	0	0	0	0;
	1671	20	0.2	15	-15	1.036	100	1	21.4	4.28	0	0	0	0	0	0	0	0	0	0	0;
	1615	25.06	0.48	24	-24	1.028	100	1	39	7.8	0	0	0	0	0	0	0	0	0	0	0;
	1681	10.74	-12.71	26.1	-24.36	1.049	100	1	87	17.4	0	0	0	0	0	0	0	0	0	0	0;
	418	15	1.85	50	-40	1.061	100	1	75	15	0	0	0	0	0	0	0	0	0	0	0;
	2658	15	1.85	50	-40	1.061	100	1	75	15	0	0	0	0	0	0	0	0	0	0	0;
	418	15	1.85	50	-40	1.061	100	1	75	15	0	0	0	0	0	0	0	0	0	0	0;
	2658	15	1.85	50	-40	1.061	100	1	75	15	0	0	0	0	0	0	0	0	0	0	0;
	461	8.65	-2.97	12.42	-11.59	1.049	100	1	41.4	8.28	0	0	0	0	0	0	0	0	0	0	0;
	31	2.27	0	0	0	1.049	100	1	6.68	1.34	0	0	0	0	0	0	0	0	0	0	0;
	236	3	0.05	7	0	1.022	100	1	15	3	0	0	0	0	0	0	0	0	0	0	0;
	236	3	0.05	7	0	1.022	100	1	15	3	0	0	0	0	0	0	0	0	0	0	0;
	1754	0.44	0	1	-1	1.017	100	1	1	0	0	0	0	0	0	0	0	0	0	0	0;
	1754	0.44	0	1	-1	1.017	100	1	1	0	0	0	0	0	0	0	0	0	0	0	0;
	1754	0.44	0	1	-1	1.017	100	1	1	0	0	0	0	0	0	0	0	0	0	0	0;
	898	0.25	0	0	0	1.036	100	1	1.7	0	0	0	0	0	0	0	0	0	0	0	0;
	898	2.8	0	0	0	1.036	100	1	22.6	4.52	0	0	0	0	0	0	0	0	0	0	0;
	120	13.01	-0.01	9	-9	1.049	100	1	15	3	0	0	0	0	0	0	0	0	0	0	0;
	549	5	0.49	22	-10	1.02	100	1	50	5	0	0	0	0	0	0	0	0	0	0	0;
	77	-2.48	0	0	0	1.026	100	1	23.5	4.7	0	0	0	0	0	0	0	0	0	0	0;
	124	-3.56	0	0	0	1.022	100	1	0	-7	0	0	0	0	0	0	0	0	0	0	0;
	124	-3.56	0	0	0	1.022	100	1	0	-7	0	0	0	0	0	0	0	0	0	0	0;
	552	12.12	0	0	0	1.018	100	1	21	4.2	0	0	0	0	0	0	0	0	0	0	0;
	1858	8.64	0.05	6	-6	0.952	100	1	9.6	1.92	0	0	0	0	0	0	0	0	0	0	0;
	134	24	-0.32	13	-9	1.015	100	1	25	5	0	0	0	0	0	0	0	0	0	0	0;
	1204	28.44	0.29	25	-20	0.964	100	1	42	8.4	0	0	0	0	0	0	0	0	0	0	0;
	1204	8.4	0.29	25	-20	0.964	100	1	42	8.4	0	0	0	0	0	0	0	0	0	0	0;
...
];

%% branch data
%	fbus	tbus	r	x	b	rateA	rateB	rateC	ratio	angle	status	angmin	angmax
mpc.branch = [
	639	1	0.005799	0.010615	0.0075	0	0	0	1	0	1	0	0;
	2771	2	0.002607	0.017462	0.0324	540	540	540	1	0	1	0	0;
	2575	3	2.1e-05	0.000125	0.1386	737	737	737	1	0	1	0	0;
	875	3	0.000145	0.001877	0.0635	2487	2487	2487	1	0	1	0	0;
	1710	3	0.000319	0.003234	0.0838	1841	1841	1841	1	0	1	0	0;
	46	3	2.1e-05	0.000125	0.1386	737	737	737	1	0	1	0	0;
	1073	4	0.037541	0.100529	0.0011	0	0	0	1	0	1	0	0;
	1533	4	0.090199	0.211388	0.0023	0	0	0	1	0	1	0	0;
	1658	4	0.09801	0.267574	0	0	0	0	1	0	1	0	0;
	1370	5	0.009383	0.019753	0	0	0	0	1	0	1	0	0;
	1370	6	0.001975	0.004444	0	0	0	0	1	0	1	0	0;
	199	7	0.006163	0.041067	0.0759	446	446	446	1	0	1	0	0;
	880	7	0.000652	0.004369	0.0081	558	558	558	1	0	1	0	0;
	1061	8	0.067019	0.137566	0.0037	0	0	0	1	0	1	0	0;
	1223	8	0.032754	0.088939	0.0039	0	0	0	1	0	1	0	0;
	1223	8	0.030184	0.080096	0.0053	0	0	0	1	0	1	0	0;
	1371	10	0.009733	0.034089	0.0185	0	0	0	1	0	1	0	0;
	147	11	0.000277	0.002015	0.003	288	288	288	1	0	1	0	0;
	387	2571	0.00881	0.033995	0.0607	289	289	289	1	0	1	0	0;
	437	2571	0.004642	0.019832	0.0354	255	255	255	1	0	1	0	0;
	955	11	0.008861	0.03506	0.0623	288	288	288	1	0	1	0	0;
	991	11	0.006993	0.032869	0.0557	255	255	255	1	0	1	0	0;
	1774	2571	0.002173	0.008731	0.0152	0	0	0	1	0	1	0	0;
	1817	11	0.00077	0.003121	0.0051	0	0	0	1	0	1	0	0;
	2092	2571	0.004109	0.016138	0.0284	288	288	288	1	0	1	0	0;
	2591	12	8.3e-05	0.000907	0.0202	1034	1034	1034	1	0	1	0	0;
	419	12	0.000552	0.006726	0.0939	1786	1786	1786	1	0	1	0	0;
	808	12	0.000512	0.008012	0.2455	2462	2462	2462	1	0	1	0	0;
	1158	12	0.001107	0.00918	0.1906	1644	1644	1644	1	0	1	0	0;
	148	2572	6.2e-05	0.000741	0.0173	1095	1095	1095	1	0	1	0	0;
	808	12	0.000512	0.008019	0.2455	2462	2462	2462	1	0	1	0	0;
	808	2572	0.001153	0.013123	0.1841	1433	1433	1433	1	0	1	0	0;
	167	13	0.000158	0.000672	0.0719	331	331	331	1	0	1	0	0;
	1463	13	4.5e-05	8.9e-05	0.002	268	268	268	1	0	1	0	0;
	820	14	0.033258	0.090955	0.001	0	0	0	1	0	1	0	0;
	465	15	0.071303	0.180902	0.0021	0	0	0	1	0	1	0	0;
	878	15	0.071554	0.18191	0.0021	0	0	0	1	0	1	0	0;
	2664	16	0.00478	0.028622	0.0547	455	455	455	1	0	1	0	0;
	451	16	0.00478	0.028583	0.0547	455	455	455	1	0	1	0	0;
	151	17	0.000257	0.000514	0.0294	0	0	0	1	0	1	0	0;
	987	18	0.000257	0.002153	0.2147	452	452	452	1	0	1	0	0;
	1264	18	0.000277	0.000869	0.0931	481	481	481	1	0	1	0	0;
	1903	19	0.000756	0.00252	0	0	0	0	1	0	1	0	0;
	1247	20	0.000237	0.00083	0.1863	268	268	268	1	0	1	0	0;
	1301	20	0.000178	0.000612	0.1377	268	268	268	1	0	1	0	0;
	59	21	0.002568	0.011753	0.0203	424	424	424	1	0	1	0	0;
	1908	21	0.002568	0.011615	0.0228	290	290	290	1	0	1	0	0;
	591	22	0.102293	0.226757	0.0025	0	0	0	1	0	1	0	0;
	855	22	0.177551	0.405291	0.0046	0	0	0	1	0	1	0	0;
	1199	22	0.088264	0.161566	0.0017	0	0	0	1	0	1	0	0;
	820	23	0.043336	0.11867	0.001	0	0	0	1	0	1	0	0;
	1059	23	0.067775	0.139834	0.001	0	0	0	1	0	1	0	0;
	1691	23	0.047367	0.16125	0.0021	0	0	0	1	0	1	0	0;
	1922	23	0.004031	0.016629	0.001	0	0	0	1	0	1	0	0;
	1377	24	9.9e-05	0.00077	0.078	379	379	379	1	0	1	0	0;
	1377	2573	9.9e-05	0.00077	0.077	379	379	379	1	0	1	0	0;
	1908	25	0.000514	0.003437	0.0061	290	290	290	1	0	1	0	0;
	1914	25	0.005476	0.036879	0.1255	522	522	522	1	0	1	0	0;
	59	25	0.000514	0.003457	0.0061	418	418	418	1	0	1	0	0;
	1138	26	0.003477	0.01118	0.0187	304	304	304	1	0	1	0	0;
	1409	26	0.000612	0.003121	0.0152	270	270	270	1	0	1	0	0;
	2755	27	0.013857	0.035525	0.0004	0	0	0	1	0	1	0	0;
	1514	28	2.4e-05	0.000144	0.0213	701	701	701	1	0	1	0	0;
	1514	2574	7.1e-05	0.000162	0.0162	251	251	251	1	0	1	0	0;
	249	29	0.068027	0.173091	0.002	0	0	0	1	0	1	0	0;
	296	29	0.027211	0.068783	0.001	0	0	0	1	0	1	0	0;
	776	29	0.03099	0.202822	0.002	0	0	0	1	0	1	0	0;
	1274	30	0.000257	0.001165	0.002	405	405	405	1	0	1	0	0;
	1906	31	0.047317	0.131595	0.0015	0	0	0	1	0	1	0	0;
	2686	32	0.075838	0.224742	0.0027	0	0	0	1	0	1	0	0;
	648	32	0.028471	0.089695	0.001	0	0	0	1	0	1	0	0;
	1337	32	0.080373	0.255732	0.003	0	0	0	1	0	1	0	0;
	2050	32	0.000252	0.000504	0	0	0	0	1	0	1	0	0;
	1907	33	0.000444	0.001136	0	0	0	0	1	0	1	0	0;
	1370	34	0.057284	0.130864	0	0	0	0	1	0	1	0	0;
	242	35	0.054749	0.157445	0.0027	0	0	0	1	0	1	0	0;
	1507	35	0.038549	0.103049	0.0012	0	0	0	1	0	1	0	0;
	2117	35	0.012598	0.052406	0.0006	0	0	0	1	0	1	0	0;
	800	36	0.006914	0.020741	0	0	0	0	1	0	1	0	0;
	712	37	0.032124	0.082892	0.003	0	0	0	1	0	1	0	0;
	1655	37	0.025573	0.09869	0.0012	0	0	0	1	0	1	0	0;
	564	38	0.001512	0.005291	0.0064	0	0	0	1	0	1	0	0;
	637	39	0.005709	0.037926	0.0688	492	492	492	1	0	1	0	0;
	2032	39	0.001758	0.011654	0.0208	492	492	492	1	0	1	0	0;
	2585	40	0.001383	0.009462	0.0172	463	463	463	1	0	1	0	0;
	593	40	0.00156	0.006933	0.0121	432	432	432	1	0	1	0	0;
	788	40	0.006376	0.028733	0.0506	432	432	432	1	0	1	0	0;
	1291	40	0.00158	0.010627	0.0192	481	481	481	1	0	1	0	0;
	1108	41	0.001086	0.003536	0.3766	506	506	506	1	0	1	0	0;
	1108	41	0.001086	0.003536	0.3766	506	506	506	1	0	1	0	0;
	235	42	0.04059	0.110708	0.0013	0	0	0	1	0	1	0	0;
	248	42	0.073646	0.225598	0.0087	0	0	0	1	0	1	0	0;
	285	42	0.02066	0.088687	0.0021	0	0	0	1	0	1	0	0;
	1933	42	0.019904	0.08516	0.001	0	0	0	1	0	1	0	0;
	1935	42	0.014361	0.068027	0.0035	0	0	0	1	0	1	0	0;
	1770	42	0.059209	0.150164	0.0021	0	0	0	1	0	1	0	0;
	183	43	0.004741	0.020385	0.0334	0	0	0	1	0	1	0	0;
	2006	43	0.009027	0.048869	0.084	351	351	351	1	0	1	0	0;
	2036	43	0.003516	0.016257	0.0273	311	311	311	1	0	1	0	0;
	265	44	0.059461	0.163265	0.0018	0	0	0	1	0	1	0	0;
	1652	44	0.146384	0.373394	0.0051	0	0	0	1	0	1	0	0;
	389	45	0.000514	0.003417	0.0278	452	452	452	1	0	1	0	0;
	408	45	0.001084	0.007198	0.0132	448	448	448	1	0	1	0	0;
	1955	45	0.000523	0.002436	0.0167	348	348	348	1	0	1	0	0;
	389	45	0.000514	0.003457	0.0203	356	356	356	1	0	1	0	0;
	408	45	0.001086	0.007249	0.0132	540	540	540	1	0	1	0	0;
	1954	45	0.000553	0.002469	0.0157	405	405	405	1	0	1	0	0;
	408	45	0.001086	0.007269	0.0132	540	540	540	1	0	1	0	0;
	380	47	0.016125	0.068279	0.0081	0	0	0	1	0	1	0	0;
	1699	47	0.059209	0.150416	0.0021	0	0	0	1	0	1	0	0;
	380	47	0.016125	0.068279	0.0081	0	0	0	1	0	1	0	0;
	1610	48	0.102293	0.245906	0.0027	0	0	0	1	0	1	0	0;
	2120	48	0.036533	0.088435	0.001	0	0	0	1	0	1	0	0;
	1006	49	0.019148	0.081381	0.0012	0	0	0	1	0	1	0	0;
	1585	49	0.02318	0.04258	0.0006	0	0	0	1	0	1	0	0;
	1972	49	0.002268	0.022424	0.0002	0	0	0	1	0	1	0	0;
	2121	2576	0.012094	0.030486	0.0004	0	0	0	1	0	1	0	0;
	1006	2576	0.03351	0.088435	0.001	0	0	0	1	0	1	0	0;
	1971	2576	0.00252	0.02066	0.0002	0	0	0	1	0	1	0	0;
	1103	50	0.001837	0.011694	0.0759	467	467	467	1	0	1	0	0;
	1256	50	0.001067	0.007131	0.0132	413	413	413	1	0	1	0	0;
	1709	50	0.001284	0.008593	0.0152	541	541	541	1	0	1	0	0;
	2895	50	0.001284	0.008593	0.0162	541	541	541	1	0	1	0	0;
	2895	50	0.001284	0.008533	0.0162	541	541	541	1	0	1	0	0;
	2621	51	0.000494	0.000928	0.0699	0	0	0	1	0	1	0	0;
	434	51	0.000184	0.00159	0.1661	422	422	422	1	0	1	0	0;
	1497	51	0.000198	0.001711	0.1711	385	385	385	1	0	1	0	0;
	1522	51	0.000751	0.003358	0.1534	385	385	385	1	0	1	0	0;
	450	52	0.000178	0.001047	0.1499	452	452	452	1	0	1	0	0;
	651	2942	0.000119	0.000474	0.0688	452	452	452	1	0	1	0	0;
	1247	52	0.000316	0.002232	0.2774	452	452	452	1	0	1	0	0;
	2603	53	0.047115	0.108088	0.0031	0	0	0	1	0	1	0	0;
	1126	53	0.036281	0.154195	0.0037	0	0	0	1	0	1	0	0;
	1686	54	0.037227	0.106836	0.0328	0	0	0	1	0	1	0	0;
	1929	54	0.006089	0.020756	0.0067	0	0	0	1	0	1	0	0;
	1109	55	0.000729	0.005118	0.0933	389	389	389	1	0	1	0	0;
	1109	55	0.000755	0.005235	0.0909	419	419	419	1	0	1	0	0;
	321	56	0.001787	0.01946	0.4214	1579	1579	1579	1	0	1	0	0;
	638	57	0.001719	0.00877	0.0157	321	321	321	1	0	1	0	0;
	1538	57	0.009165	0.04318	0.077	321	321	321	1	0	1	0	0;
	190	59	0.004879	0.032454	0.0602	487	487	487	1	0	1	0	0;
	258	59	0.006341	0.042746	0.0785	418	418	418	1	0	1	0	0;
	284	59	0.006914	0.031249	0.0547	327	327	327	1	0	1	0	0;
	396	60	0.000582	0.007652	0.2643	2487	2487	2487	1	0	1	0	0;
	1001	60	0.001648	0.021634	0.748	2487	2487	2487	1	0	1	0	0;
	1240	60	0.000838	0.014301	0.5198	2487	2487	2487	1	0	1	0	0;
	2897	60	0.001163	0.015312	0.5285	2487	2487	2487	1	0	1	0	0;
	396	60	0.000575	0.007576	0.2614	2487	2487	2487	1	0	1	0	0;
	1001	60	0.001646	0.021633	0.7479	2487	2487	2487	1	0	1	0	0;
	1240	60	0.000838	0.014287	0.5198	2487	2487	2487	1	0	1	0	0;
	1723	60	0.00117	0.015339	0.5285	2487	2487	2487	1	0	1	0	0;
	2897	60	0.001821	0.017874	0.4318	1382	1382	1382	1	0	1	0	0;
	182	61	0.003023	0.01159	0.0002	0	0	0	1	0	1	0	0;
	1589	63	0.070043	0.190728	0.0021	0	0	0	1	0	1	0	0;
	1684	2577	0.110103	0.294533	0.004	0	0	0	1	0	1	0	0;
	1755	63	0.034014	0.145629	0.0018	0	0	0	1	0	1	0	0;
	65	2577	0.000171	0.000313	0.0003	0	0	0	1	0	1	0	0;
	738	64	0.000672	0.003477	0.0365	254	254	254	1	0	1	0	0;
	252	66	0.138123	0.332	0.001	0	0	0	1	0	1	0	0;
	1773	2578	0.000988	0.003457	0	0	0	0	1	0	1	0	0;
	2145	66	0.008395	0.02321	0	0	0	0	1	0	1	0	0;
	1894	67	0.000632	0.004188	0.0081	471	471	471	1	0	1	0	0;
	1894	2579	0.000612	0.004148	0.0071	471	471	471	1	0	1	0	0;
	1362	69	0.000672	0.004405	0.0081	541	541	541	1	0	1	0	0;
	2090	69	0.000968	0.004602	0.0081	304	304	304	1	0	1	0	0;
	1362	69	0.000632	0.004444	0.0081	440	440	440	1	0	1	0	0;
	2095	70	0.001975	0.013215	0.0243	541	541	541	1	0	1	0	0;
	2096	70	0.001956	0.013037	0.0243	0	0	0	1	0	1	0	0;
	1761	71	0.002933	0.010267	0.0032	0	0	0	1	0	1	0	0;
	1911	71	0.0028	0.007511	0.0022	0	0	0	1	0	1	0	0;
	74	2580	2e-05	0.000198	0.0121	261	261	261	1	0	1	0	0;
	74	72	2e-05	0.000198	0.0142	261	261	261	1	0	1	0	0;
	377	74	0.000277	0.000928	0.2066	0	0	0	1	0	1	0	0;
	2653	74	0.002037	0.010904	0.0187	352	352	352	1	0	1	0	0;
	423	74	0.000415	0.002015	0.1266	428	428	428	1	0	1	0	0;
	483	74	0.000395	0.00156	0.1893	426	426	426	1	0	1	0	0;
	791	74	4e-05	0.000178	0.0152	0	0	0	1	0	1	0	0;
	2792	74	0.001323	0.012444	0.0678	935	935	935	1	0	1	0	0;
	1631	74	0.000454	0.002133	0.2511	268	268	268	1	0	1	0	0;
	1855	74	0.000119	0.000691	0.1002	387	387	387	1	0	1	0	0;
	1886	74	0.00083	0.005175	0.0203	323	323	323	1	0	1	0	0;
	377	74	0.000277	0.000928	0.2086	0	0	0	1	0	1	0	0;
	2792	74	0.001314	0.012115	0.0673	943	943	943	1	0	1	0	0;
	2926	74	5.9e-05	0.000217	0.0496	323	323	323	1	0	1	0	0;
	1853	74	5.9e-05	0.000217	0.0466	323	323	323	1	0	1	0	0;
	1640	75	0.000854	0.001563	0.0007	0	0	0	1	0	1	0	0;
	1909	76	0.000494	0.000988	0	0	0	0	1	0	1	0	0;
	124	77	0.062232	0.138574	0.0015	0	0	0	1	0	1	0	0;
	1903	77	0.035525	0.084782	0.0009	0	0	0	1	0	1	0	0;
	1520	78	0.000158	0.000948	0.002	348	348	348	1	0	1	0	0;
	125	79	0.035273	0.218443	0.0029	0	0	0	1	0	1	0	0;
	210	79	0.000252	0.000504	0	0	0	0	1	0	1	0	0;
	354	79	0.034442	0.11809	0.0091	0	0	0	1	0	1	0	0;
	125	79	0.034266	0.221466	0	0	0	0	1	0	1	0	0;
	310	80	0.0839	0.229025	0.0025	0	0	0	1	0	1	0	0;
	667	80	0.048627	0.123205	0.0014	0	0	0	1	0	1	0	0;
	903	81	0.001521	0.007076	0.0118	302	302	302	1	0	1	0	0;
	1701	81	0.002469	0.011457	0.0203	315	315	315	1	0	1	0	0;
	524	82	0.001442	0.009699	0.0172	566	566	566	1	0	1	0	0;
	568	82	0.001422	0.009541	0.0172	566	566	566	1	0	1	0	0;
...
];

%%-----  OPF Data  -----%%
%% generator cost data
%	1	startup	shutdown	n	x1	y1	...	xn	yn
%	2	startup	shutdown	n	c(n-1)	...	c0
mpc.gencost = [
	2	0	0	3	0	2	0;
	2	0	0	3	0	1	0;
	2	0	0	3	0	1	0;
	2	0	0	3	0	1	0;
	2	0	0	3	0	1	0;
	2	0	0	3	0	1	0;
	2	0	0	3	0	1	0;
	2	0	0	3	0	1	0;
	2	0	0	3	0	1	0;
	2	0	0	3	0	1	0;
	2	0	0	3	0	2	0;
	2	0	0	3	0	1	0;
	2	0	0	3	0	1	0;
	2	0	0	3	0	1	0;
	2	0	0	3	0	1	0;
	2	0	0	3	0	1	0;
	2	0	0	3	0	1	0;
	2	0	0	3	0	2	0;
	2	0	0	3	0	2	0;
	2	0	0	3	0	2	0;
	2	0	0	3	0	1	0;
	2	0	0	3	0	1	0;
	2	0	0	3	0	1	0;
	2	0	0	3	0	1	0;
	2	0	0	3	0	1	0;
	2	0	0	3	0	1	0;
	2	0	0	3	0	1	0;
	2	0	0	3	0	1	0;
	2	0	0	3	0	1	0;
	2	0	0	3	0	1	0;
	2	0	0	3	0	1	0;
	2	0	0	3	0	1	0;
	2	0	0	3	0	1	0;
	2	0	0	3	0	1	0;
	2	0	0	3	0	1	0;
	2	0	0	3	0	1	0;
	2	0	0	3	0	1	0;
	2	0	0	3	0	1	0;
	2	0	0	3	0	1	0;
	2	0	0	3	0	1	0;
	2	0	0	3	0	1	0;
	2	0	0	3	0	1	0;
	2	0	0	3	0	2	0;
	2	0	0	3	0	2	0;
	2	0	0	3	0	1	0;
	2	0	0	3	0	1	0;
	2	0	0	3	0	1	0;
	2	0	0	3	0	1	0;
	2	0	0	3	0	1	0;
	2	0	0	3	0	2	0;
	2	0	0	3	0	1	0;
	2	0	0	3	0	1	0;
	2	0	0	3	0	1	0;
	2	0	0	3	0	1	0;
	2	0	0	3	0	1	0;
	2	0	0	3	0	1	0;
	2	0	0	3	0	1	0;
	2	0	0	3	0	1	0;
	2	0	0	3	0	1	0;
	2	0	0	3	0	1	0;
	2	0	0	3	0	1	0;
	2	0	0	3	0	1	0;
	2	0	0	3	0	1	0;
	2	0	0	3	0	1	0;
	2	0	0	3	0	1	0;
	2	0	0	3	0	2	0;
	2	0	0	3	0	1	0;
	2	0	0	3	0	1	0;
	2	0	0	3	0	1	0;
	2	0	0	3	0	1	0;
	2	0	0	3	0	1	0;
	2	0	0	3	0	1	0;
	2	0	0	3	0	1	0;
	2	0	0	3	0	1	0;
	2	0	0	3	0	1	0;
	2	0	0	3	0	1	0;
	2	0	0	3	0	1	0;
	2	0	0	3	0	1	0;
	2	0	0	3	0	1	0;
	2	0	0	3	0	1	0;
	2	0	0	3	0	1	0;
	2	0	0	3	0	1	0;
	2	0	0	3	0	1	0;
	2	0	0	3	0	1	0;
	2	0	0	3	0	1	0;
	2	0	0	3	0	1	0;
	2	0	0	3	0	1	0;
	2	0	0	3	0	1	0;
	2	0	0	3	0	1	0;
	2	0	0	3	0	1	0;
	2	0	0	3	0	1	0;
	2	0	0	3	0	1	0;
	2	0	0	3	0	2	0;
	2	0	0	3	0	1	0;
	2	0	0	3	0	1	0;
	2	0	0	3	0	1	0;
	2	0	0	3	0	2	0;
	2	0	0	3	0	1	0;
	2	0	0	3	0	1	0;
	2	0	0	3	0	1	0;
	2	0	0	3	0	1	0;
	2	0	0	3	0	1	0;
	2	0	0	3	0	1	0;
	2	0	0	3	0	1	0;
	2	0	0	3	0	1	0;
	2	0	0	3	0	1	0;
	2	0	0	3	0	1	0;
	2	0	0	3	0	1	0;
	2	0	0	3	0	1	0;
	2	0	0	3	0	1	0;
	2	0	0	3	0	1	0;
	2	0	0	3	0	1	0;
	2	0	0	3	0	1	0;
	2	0	0	3	0	1	0;
	2	0	0	3	0	1	0;
	2	0	0	3	0	1	0;
	2	0	0	3	0	1	0;
	2	0	0	3	0	1	0;
	2	0	0	3	0	1	0;
	2	0	0	3	0	1	0;
	2	0	0	3	0	1	0;
	2	0	0	3	0	1	0;
	2	0	0	3	0	1	0;
	2	0	0	3	0	1	0;
	2	0	0	3	0	1	0;
	2	0	0	3	0	1	0;
	2	0	0	3	0	1	0;
	2	0	0	3	0	1	0;
	2	0	0	3	0	1	0;
	2	0	0	3	0	1	0;
	2	0	0	3	0	1	0;
	2	0	0	3	0	1	0;
	2	0	0	3	0	2	0;
	2	0	0	3	0	2	0;
	2	0	0	3	0	1	0;
	2	0	0	3	0	1	0;
	2	0	0	3	0	1	0;
	2	0	0	3	0	1	0;
	2	0	0	3	0	1	0;
	2	0	0	3	0	1	0;
	2	0	0	3	0	1	0;
	2	0	0	3	0	1	0;
	2	0	0	3	0	1	0;
	2	0	0	3	0	1	0;
	2	0	0	3	0	1	0;
	2	0	0	3	0	1	0;
	2	0	0	3	0	1	0;
	2	0	0	3	0	2	0;
	2	0	0	3	0	1	0;
	2	0	0	3	0	1	0;
	2	0	0	3	0	1	0;
	2	0	0	3	0	2	0;
	2	0	0	3	0	1	0;
	2	0	0	3	0	1	0;
	2	0	0	3	0	2	0;
	2	0	0	3	0	2	0;
	2	0	0	3	0	1	0;
	2	0	0	3	0	1	0;
	2	0	0	3	0	1	0;
	2	0	0	3	0	1	0;
	2	0	0	3	0	1	0;
	2	0	0	3	0	1	0;
	2	0	0	3	0	1	0;
	2	0	0	3	0	1	0;
	2	0	0	3	0	1	0;
	2	0	0	3	0	1	0;
	2	0	0	3	0	1	0;
	2	0	0	3	0	1	0;
	2	0	0	3	0	1	0;
	2	0	0	3	0	1	0;
	2	0	0	3	0	1	0;
	2	0	0	3	0	1	0;
	2	0	0	3	0	1	0;
	2	0	0	3	0	1	0;
	2	0	0	3	0	1	0;
	2	0	0	3	0	1	0;
	2	0	0	3	0	1	0;
	2	0	0	3	0	1	0;
	2	0	0	3	0	1	0;
	2	0	0	3	0	1	0;
	2	0	0	3	0	1	0;
	2	0	0	3	0	1	0;
	2	0	0	3	0	1	0;
	2	0	0	3	0	1	0;
	2	0	0	3	0	1	0;
	2	0	0	3	0	1	0;
	2	0	0	3	0	1	0;
	2	0	0	3	0	1	0;
	2	0	0	3	0	1	0;
	2	0	0	3	0	1	0;
	2	0	0	3	0	1	0;
	2	0	0	3	0	1	0;
	2	0	0	3	0	1	0;
	2	0	0	3	0	1	0;
	2	0	0	3	0	1	0;
	2	0	0	3	0	1	0;
	2	0	0	3	0	1	0;
	2	0	0	3	0	1	0;
	2	0	0	3	0	1	0;
	2	0	0	3	0	1	0;
...
];
